/*--------------------------------*- C++ -*----------------------------------*\
| =========                 |                                                 |
| \\      /  F ield         | OpenFOAM: The Open Source CFD Toolbox           |
|  \\    /   O peration     | Version:  2406                                  |
|   \\  /    A nd           | Website:  www.openfoam.com                      |
|    \\/     M anipulation  |                                                 |
\*---------------------------------------------------------------------------*/
FoamFile
{
    version     2.0;
    format      ascii;
    arch        "LSB;label=32;scalar=64";
    class       polyBoundaryMesh;
    location    "constant/polyMesh";
    object      boundary;
}
// * * * * * * * * * * * * * * * * * * * * * * * * * * * * * * * * * * * * * //

12
(
    cyclicLeft
    {
        type            cyclic;
        inGroups        1(cyclic);
        nFaces          0;
        startFace       3630;
        matchTolerance  0.0001;
        transform       unknown;
        neighbourPatch  cyclicRight;
    }
    cyclicRight
    {
        type            cyclic;
        inGroups        1(cyclic);
        nFaces          0;
        startFace       3630;
        matchTolerance  0.0001;
        transform       unknown;
        neighbourPatch  cyclicLeft;
    }
    cyclicTop
    {
        type            cyclic;
        inGroups        1(cyclic);
        nFaces          0;
        startFace       3630;
        matchTolerance  0.0001;
        transform       unknown;
        neighbourPatch  cyclicBottom;
    }
    cyclicBottom
    {
        type            cyclic;
        inGroups        1(cyclic);
        nFaces          0;
        startFace       3630;
        matchTolerance  0.0001;
        transform       unknown;
        neighbourPatch  cyclicTop;
    }
    cyclicFront
    {
        type            cyclic;
        inGroups        1(cyclic);
        nFaces          0;
        startFace       3630;
        matchTolerance  0.0001;
        transform       unknown;
        neighbourPatch  cyclicBack;
    }
    cyclicBack
    {
        type            cyclic;
        inGroups        1(cyclic);
        nFaces          0;
        startFace       3630;
        matchTolerance  0.0001;
        transform       unknown;
        neighbourPatch  cyclicFront;
    }
    procBoundary6to2
    {
        type            processor;
        inGroups        1(processor);
        nFaces          121;
        startFace       3630;
        matchTolerance  0.0001;
        transform       unknown;
        myProcNo        6;
        neighbProcNo    2;
    }
    procBoundary6to2throughcyclicBack
    {
        type            processorCyclic;
        inGroups        1(processorCyclic);
        nFaces          121;
        startFace       3751;
        matchTolerance  0.0001;
        transform       unknown;
        myProcNo        6;
        neighbProcNo    2;
        referPatch      cyclicBack;
    }
    procBoundary6to4
    {
        type            processor;
        inGroups        1(processor);
        nFaces          121;
        startFace       3872;
        matchTolerance  0.0001;
        transform       unknown;
        myProcNo        6;
        neighbProcNo    4;
    }
    procBoundary6to4throughcyclicBottom
    {
        type            processorCyclic;
        inGroups        1(processorCyclic);
        nFaces          121;
        startFace       3993;
        matchTolerance  0.0001;
        transform       unknown;
        myProcNo        6;
        neighbProcNo    4;
        referPatch      cyclicBottom;
    }
    procBoundary6to7
    {
        type            processor;
        inGroups        1(processor);
        nFaces          121;
        startFace       4114;
        matchTolerance  0.0001;
        transform       unknown;
        myProcNo        6;
        neighbProcNo    7;
    }
    procBoundary6to7throughcyclicLeft
    {
        type            processorCyclic;
        inGroups        1(processorCyclic);
        nFaces          121;
        startFace       4235;
        matchTolerance  0.0001;
        transform       unknown;
        myProcNo        6;
        neighbProcNo    7;
        referPatch      cyclicLeft;
    }
)

// ************************************************************************* //
